6
Title
C         -1.08800       -0.88350       -0.00000
H         -0.55280       -1.81000       -0.00000
H         -2.15800       -0.88370        0.00000
C         -0.41070        0.29030        0.00000
H         -0.94590        1.21690       -0.00000
H          0.65930        0.29060        0.00000
